
---------- Begin Simulation Statistics ----------
final_tick                                   41045500                       # Number of ticks from beginning of simulation (restored from checkpoints and never reset)
host_inst_rate                                 543316                       # Simulator instruction rate (inst/s)
host_mem_usage                                 669528                       # Number of bytes of host memory used
host_op_rate                                   624486                       # Simulator op (including micro ops) rate (op/s)
host_seconds                                     0.04                       # Real time elapsed on the host
host_tick_rate                             1042979640                       # Simulator tick rate (ticks/s)
sim_freq                                 1000000000000                       # Frequency of simulated ticks
sim_insts                                       21126                       # Number of instructions simulated
sim_ops                                         24459                       # Number of ops (including micro ops) simulated
sim_seconds                                  0.000041                       # Number of seconds simulated
sim_ticks                                    41045500                       # Number of ticks simulated
system.cpu.branchPred.BTBCorrect                    0                       # Number of correct BTB predictions (this stat may not work properly.
system.cpu.branchPred.BTBHitPct             36.203276                       # BTB Hit Percentage
system.cpu.branchPred.BTBHits                    1724                       # Number of BTB hits
system.cpu.branchPred.BTBLookups                 4762                       # Number of BTB lookups
system.cpu.branchPred.RASInCorrect                  5                       # Number of incorrect RAS predictions.
system.cpu.branchPred.condIncorrect               726                       # Number of conditional branches incorrect
system.cpu.branchPred.condPredicted              3894                       # Number of conditional branches predicted
system.cpu.branchPred.indirectHits                134                       # Number of indirect target hits.
system.cpu.branchPred.indirectLookups             362                       # Number of indirect predictor lookups.
system.cpu.branchPred.indirectMisses              228                       # Number of indirect misses.
system.cpu.branchPred.lookups                    5883                       # Number of BP lookups
system.cpu.branchPred.usedRAS                     512                       # Number of times the RAS was used to get a target.
system.cpu.branchPredindirectMispredicted           73                       # Number of mispredicted indirect branches.
system.cpu.committedInsts                       21126                       # Number of instructions committed
system.cpu.committedOps                         24459                       # Number of ops (including micro ops) committed
system.cpu.cpi                               3.885781                       # CPI: cycles per instruction
system.cpu.discardedOps                          2136                       # Number of ops (including micro ops) which were discarded before commit
system.cpu.dtb.accesses                             0                       # DTB accesses
system.cpu.dtb.align_faults                         0                       # Number of TLB faults due to alignment restrictions
system.cpu.dtb.domain_faults                        0                       # Number of TLB faults due to domain restrictions
system.cpu.dtb.flush_entries                        0                       # Number of entries that have been flushed from TLB
system.cpu.dtb.flush_tlb                            0                       # Number of times complete TLB was flushed
system.cpu.dtb.flush_tlb_asid                       0                       # Number of times TLB was flushed by ASID
system.cpu.dtb.flush_tlb_mva                        0                       # Number of times TLB was flushed by MVA
system.cpu.dtb.flush_tlb_mva_asid                   0                       # Number of times TLB was flushed by MVA & ASID
system.cpu.dtb.hits                                 0                       # DTB hits
system.cpu.dtb.inst_accesses                        0                       # ITB inst accesses
system.cpu.dtb.inst_hits                            0                       # ITB inst hits
system.cpu.dtb.inst_misses                          0                       # ITB inst misses
system.cpu.dtb.misses                               0                       # DTB misses
system.cpu.dtb.perms_faults                         0                       # Number of TLB faults due to permissions restrictions
system.cpu.dtb.prefetch_faults                      0                       # Number of TLB faults due to prefetch
system.cpu.dtb.read_accesses                        0                       # DTB read accesses
system.cpu.dtb.read_hits                            0                       # DTB read hits
system.cpu.dtb.read_misses                          0                       # DTB read misses
system.cpu.dtb.stage2_mmu.stage2_tlb.accesses            0                       # DTB accesses
system.cpu.dtb.stage2_mmu.stage2_tlb.align_faults            0                       # Number of TLB faults due to alignment restrictions
system.cpu.dtb.stage2_mmu.stage2_tlb.domain_faults            0                       # Number of TLB faults due to domain restrictions
system.cpu.dtb.stage2_mmu.stage2_tlb.flush_entries            0                       # Number of entries that have been flushed from TLB
system.cpu.dtb.stage2_mmu.stage2_tlb.flush_tlb            0                       # Number of times complete TLB was flushed
system.cpu.dtb.stage2_mmu.stage2_tlb.flush_tlb_asid            0                       # Number of times TLB was flushed by ASID
system.cpu.dtb.stage2_mmu.stage2_tlb.flush_tlb_mva            0                       # Number of times TLB was flushed by MVA
system.cpu.dtb.stage2_mmu.stage2_tlb.flush_tlb_mva_asid            0                       # Number of times TLB was flushed by MVA & ASID
system.cpu.dtb.stage2_mmu.stage2_tlb.hits            0                       # DTB hits
system.cpu.dtb.stage2_mmu.stage2_tlb.inst_accesses            0                       # ITB inst accesses
system.cpu.dtb.stage2_mmu.stage2_tlb.inst_hits            0                       # ITB inst hits
system.cpu.dtb.stage2_mmu.stage2_tlb.inst_misses            0                       # ITB inst misses
system.cpu.dtb.stage2_mmu.stage2_tlb.misses            0                       # DTB misses
system.cpu.dtb.stage2_mmu.stage2_tlb.perms_faults            0                       # Number of TLB faults due to permissions restrictions
system.cpu.dtb.stage2_mmu.stage2_tlb.prefetch_faults            0                       # Number of TLB faults due to prefetch
system.cpu.dtb.stage2_mmu.stage2_tlb.read_accesses            0                       # DTB read accesses
system.cpu.dtb.stage2_mmu.stage2_tlb.read_hits            0                       # DTB read hits
system.cpu.dtb.stage2_mmu.stage2_tlb.read_misses            0                       # DTB read misses
system.cpu.dtb.stage2_mmu.stage2_tlb.walker.walkRequestOrigin_Requested::Data            0                       # Table walker requests started/completed, data/inst
system.cpu.dtb.stage2_mmu.stage2_tlb.walker.walkRequestOrigin_Requested::Inst            0                       # Table walker requests started/completed, data/inst
system.cpu.dtb.stage2_mmu.stage2_tlb.walker.walkRequestOrigin_Requested::total            0                       # Table walker requests started/completed, data/inst
system.cpu.dtb.stage2_mmu.stage2_tlb.walker.walkRequestOrigin_Completed::Data            0                       # Table walker requests started/completed, data/inst
system.cpu.dtb.stage2_mmu.stage2_tlb.walker.walkRequestOrigin_Completed::Inst            0                       # Table walker requests started/completed, data/inst
system.cpu.dtb.stage2_mmu.stage2_tlb.walker.walkRequestOrigin_Completed::total            0                       # Table walker requests started/completed, data/inst
system.cpu.dtb.stage2_mmu.stage2_tlb.walker.walkRequestOrigin::total            0                       # Table walker requests started/completed, data/inst
system.cpu.dtb.stage2_mmu.stage2_tlb.walker.walks            0                       # Table walker walks requested
system.cpu.dtb.stage2_mmu.stage2_tlb.write_accesses            0                       # DTB write accesses
system.cpu.dtb.stage2_mmu.stage2_tlb.write_hits            0                       # DTB write hits
system.cpu.dtb.stage2_mmu.stage2_tlb.write_misses            0                       # DTB write misses
system.cpu.dtb.walker.walkRequestOrigin_Requested::Data            0                       # Table walker requests started/completed, data/inst
system.cpu.dtb.walker.walkRequestOrigin_Requested::Inst            0                       # Table walker requests started/completed, data/inst
system.cpu.dtb.walker.walkRequestOrigin_Requested::total            0                       # Table walker requests started/completed, data/inst
system.cpu.dtb.walker.walkRequestOrigin_Completed::Data            0                       # Table walker requests started/completed, data/inst
system.cpu.dtb.walker.walkRequestOrigin_Completed::Inst            0                       # Table walker requests started/completed, data/inst
system.cpu.dtb.walker.walkRequestOrigin_Completed::total            0                       # Table walker requests started/completed, data/inst
system.cpu.dtb.walker.walkRequestOrigin::total            0                       # Table walker requests started/completed, data/inst
system.cpu.dtb.walker.walks                         0                       # Table walker walks requested
system.cpu.dtb.write_accesses                       0                       # DTB write accesses
system.cpu.dtb.write_hits                           0                       # DTB write hits
system.cpu.dtb.write_misses                         0                       # DTB write misses
system.cpu.fetch2.amo_instructions                  0                       # Number of memory atomic instructions successfully decoded
system.cpu.fetch2.fp_instructions                   0                       # Number of floating point instructions successfully decoded
system.cpu.fetch2.int_instructions              17061                       # Number of integer instructions successfully decoded
system.cpu.fetch2.load_instructions              3896                       # Number of memory load instructions successfully decoded
system.cpu.fetch2.store_instructions             2426                       # Number of memory store instructions successfully decoded
system.cpu.fetch2.vec_instructions                  0                       # Number of SIMD instructions successfully decoded
system.cpu.idleCycles                           48408                       # Total number of cycles that the object has spent stopped
system.cpu.ipc                               0.257349                       # IPC: instructions per cycle
system.cpu.itb.accesses                             0                       # DTB accesses
system.cpu.itb.align_faults                         0                       # Number of TLB faults due to alignment restrictions
system.cpu.itb.domain_faults                        0                       # Number of TLB faults due to domain restrictions
system.cpu.itb.flush_entries                        0                       # Number of entries that have been flushed from TLB
system.cpu.itb.flush_tlb                            0                       # Number of times complete TLB was flushed
system.cpu.itb.flush_tlb_asid                       0                       # Number of times TLB was flushed by ASID
system.cpu.itb.flush_tlb_mva                        0                       # Number of times TLB was flushed by MVA
system.cpu.itb.flush_tlb_mva_asid                   0                       # Number of times TLB was flushed by MVA & ASID
system.cpu.itb.hits                                 0                       # DTB hits
system.cpu.itb.inst_accesses                        0                       # ITB inst accesses
system.cpu.itb.inst_hits                            0                       # ITB inst hits
system.cpu.itb.inst_misses                          0                       # ITB inst misses
system.cpu.itb.misses                               0                       # DTB misses
system.cpu.itb.perms_faults                         0                       # Number of TLB faults due to permissions restrictions
system.cpu.itb.prefetch_faults                      0                       # Number of TLB faults due to prefetch
system.cpu.itb.read_accesses                        0                       # DTB read accesses
system.cpu.itb.read_hits                            0                       # DTB read hits
system.cpu.itb.read_misses                          0                       # DTB read misses
system.cpu.itb.stage2_mmu.stage2_tlb.accesses            0                       # DTB accesses
system.cpu.itb.stage2_mmu.stage2_tlb.align_faults            0                       # Number of TLB faults due to alignment restrictions
system.cpu.itb.stage2_mmu.stage2_tlb.domain_faults            0                       # Number of TLB faults due to domain restrictions
system.cpu.itb.stage2_mmu.stage2_tlb.flush_entries            0                       # Number of entries that have been flushed from TLB
system.cpu.itb.stage2_mmu.stage2_tlb.flush_tlb            0                       # Number of times complete TLB was flushed
system.cpu.itb.stage2_mmu.stage2_tlb.flush_tlb_asid            0                       # Number of times TLB was flushed by ASID
system.cpu.itb.stage2_mmu.stage2_tlb.flush_tlb_mva            0                       # Number of times TLB was flushed by MVA
system.cpu.itb.stage2_mmu.stage2_tlb.flush_tlb_mva_asid            0                       # Number of times TLB was flushed by MVA & ASID
system.cpu.itb.stage2_mmu.stage2_tlb.hits            0                       # DTB hits
system.cpu.itb.stage2_mmu.stage2_tlb.inst_accesses            0                       # ITB inst accesses
system.cpu.itb.stage2_mmu.stage2_tlb.inst_hits            0                       # ITB inst hits
system.cpu.itb.stage2_mmu.stage2_tlb.inst_misses            0                       # ITB inst misses
system.cpu.itb.stage2_mmu.stage2_tlb.misses            0                       # DTB misses
system.cpu.itb.stage2_mmu.stage2_tlb.perms_faults            0                       # Number of TLB faults due to permissions restrictions
system.cpu.itb.stage2_mmu.stage2_tlb.prefetch_faults            0                       # Number of TLB faults due to prefetch
system.cpu.itb.stage2_mmu.stage2_tlb.read_accesses            0                       # DTB read accesses
system.cpu.itb.stage2_mmu.stage2_tlb.read_hits            0                       # DTB read hits
system.cpu.itb.stage2_mmu.stage2_tlb.read_misses            0                       # DTB read misses
system.cpu.itb.stage2_mmu.stage2_tlb.walker.walkRequestOrigin_Requested::Data            0                       # Table walker requests started/completed, data/inst
system.cpu.itb.stage2_mmu.stage2_tlb.walker.walkRequestOrigin_Requested::Inst            0                       # Table walker requests started/completed, data/inst
system.cpu.itb.stage2_mmu.stage2_tlb.walker.walkRequestOrigin_Requested::total            0                       # Table walker requests started/completed, data/inst
system.cpu.itb.stage2_mmu.stage2_tlb.walker.walkRequestOrigin_Completed::Data            0                       # Table walker requests started/completed, data/inst
system.cpu.itb.stage2_mmu.stage2_tlb.walker.walkRequestOrigin_Completed::Inst            0                       # Table walker requests started/completed, data/inst
system.cpu.itb.stage2_mmu.stage2_tlb.walker.walkRequestOrigin_Completed::total            0                       # Table walker requests started/completed, data/inst
system.cpu.itb.stage2_mmu.stage2_tlb.walker.walkRequestOrigin::total            0                       # Table walker requests started/completed, data/inst
system.cpu.itb.stage2_mmu.stage2_tlb.walker.walks            0                       # Table walker walks requested
system.cpu.itb.stage2_mmu.stage2_tlb.write_accesses            0                       # DTB write accesses
system.cpu.itb.stage2_mmu.stage2_tlb.write_hits            0                       # DTB write hits
system.cpu.itb.stage2_mmu.stage2_tlb.write_misses            0                       # DTB write misses
system.cpu.itb.walker.walkRequestOrigin_Requested::Data            0                       # Table walker requests started/completed, data/inst
system.cpu.itb.walker.walkRequestOrigin_Requested::Inst            0                       # Table walker requests started/completed, data/inst
system.cpu.itb.walker.walkRequestOrigin_Requested::total            0                       # Table walker requests started/completed, data/inst
system.cpu.itb.walker.walkRequestOrigin_Completed::Data            0                       # Table walker requests started/completed, data/inst
system.cpu.itb.walker.walkRequestOrigin_Completed::Inst            0                       # Table walker requests started/completed, data/inst
system.cpu.itb.walker.walkRequestOrigin_Completed::total            0                       # Table walker requests started/completed, data/inst
system.cpu.itb.walker.walkRequestOrigin::total            0                       # Table walker requests started/completed, data/inst
system.cpu.itb.walker.walks                         0                       # Table walker walks requested
system.cpu.itb.write_accesses                       0                       # DTB write accesses
system.cpu.itb.write_hits                           0                       # DTB write hits
system.cpu.itb.write_misses                         0                       # DTB write misses
system.cpu.numCycles                            82091                       # number of cpu cycles simulated
system.cpu.numFetchSuspends                         0                       # Number of times Execute suspended instruction fetching
system.cpu.numWorkItemsCompleted                    0                       # number of work items this cpu completed
system.cpu.numWorkItemsStarted                      0                       # number of work items this cpu started
system.cpu.op_class_0::No_OpClass                   0      0.00%      0.00% # Class of committed instruction
system.cpu.op_class_0::IntAlu                   16810     68.73%     68.73% # Class of committed instruction
system.cpu.op_class_0::IntMult                    133      0.54%     69.27% # Class of committed instruction
system.cpu.op_class_0::IntDiv                       0      0.00%     69.27% # Class of committed instruction
system.cpu.op_class_0::FloatAdd                     0      0.00%     69.27% # Class of committed instruction
system.cpu.op_class_0::FloatCmp                     0      0.00%     69.27% # Class of committed instruction
system.cpu.op_class_0::FloatCvt                     0      0.00%     69.27% # Class of committed instruction
system.cpu.op_class_0::FloatMult                    0      0.00%     69.27% # Class of committed instruction
system.cpu.op_class_0::FloatMultAcc                 0      0.00%     69.27% # Class of committed instruction
system.cpu.op_class_0::FloatDiv                     0      0.00%     69.27% # Class of committed instruction
system.cpu.op_class_0::FloatMisc                    0      0.00%     69.27% # Class of committed instruction
system.cpu.op_class_0::FloatSqrt                    0      0.00%     69.27% # Class of committed instruction
system.cpu.op_class_0::SimdAdd                      0      0.00%     69.27% # Class of committed instruction
system.cpu.op_class_0::SimdAddAcc                   0      0.00%     69.27% # Class of committed instruction
system.cpu.op_class_0::SimdAlu                      0      0.00%     69.27% # Class of committed instruction
system.cpu.op_class_0::SimdCmp                      0      0.00%     69.27% # Class of committed instruction
system.cpu.op_class_0::SimdCvt                      0      0.00%     69.27% # Class of committed instruction
system.cpu.op_class_0::SimdMisc                     0      0.00%     69.27% # Class of committed instruction
system.cpu.op_class_0::SimdMult                     0      0.00%     69.27% # Class of committed instruction
system.cpu.op_class_0::SimdMultAcc                  0      0.00%     69.27% # Class of committed instruction
system.cpu.op_class_0::SimdShift                    0      0.00%     69.27% # Class of committed instruction
system.cpu.op_class_0::SimdShiftAcc                 0      0.00%     69.27% # Class of committed instruction
system.cpu.op_class_0::SimdDiv                      0      0.00%     69.27% # Class of committed instruction
system.cpu.op_class_0::SimdSqrt                     0      0.00%     69.27% # Class of committed instruction
system.cpu.op_class_0::SimdFloatAdd                 0      0.00%     69.27% # Class of committed instruction
system.cpu.op_class_0::SimdFloatAlu                 0      0.00%     69.27% # Class of committed instruction
system.cpu.op_class_0::SimdFloatCmp                 0      0.00%     69.27% # Class of committed instruction
system.cpu.op_class_0::SimdFloatCvt                 0      0.00%     69.27% # Class of committed instruction
system.cpu.op_class_0::SimdFloatDiv                 0      0.00%     69.27% # Class of committed instruction
system.cpu.op_class_0::SimdFloatMisc               21      0.09%     69.36% # Class of committed instruction
system.cpu.op_class_0::SimdFloatMult                0      0.00%     69.36% # Class of committed instruction
system.cpu.op_class_0::SimdFloatMultAcc             0      0.00%     69.36% # Class of committed instruction
system.cpu.op_class_0::SimdFloatSqrt                0      0.00%     69.36% # Class of committed instruction
system.cpu.op_class_0::SimdReduceAdd                0      0.00%     69.36% # Class of committed instruction
system.cpu.op_class_0::SimdReduceAlu                0      0.00%     69.36% # Class of committed instruction
system.cpu.op_class_0::SimdReduceCmp                0      0.00%     69.36% # Class of committed instruction
system.cpu.op_class_0::SimdFloatReduceAdd            0      0.00%     69.36% # Class of committed instruction
system.cpu.op_class_0::SimdFloatReduceCmp            0      0.00%     69.36% # Class of committed instruction
system.cpu.op_class_0::SimdAes                      0      0.00%     69.36% # Class of committed instruction
system.cpu.op_class_0::SimdAesMix                   0      0.00%     69.36% # Class of committed instruction
system.cpu.op_class_0::SimdSha1Hash                 0      0.00%     69.36% # Class of committed instruction
system.cpu.op_class_0::SimdSha1Hash2                0      0.00%     69.36% # Class of committed instruction
system.cpu.op_class_0::SimdSha256Hash               0      0.00%     69.36% # Class of committed instruction
system.cpu.op_class_0::SimdSha256Hash2              0      0.00%     69.36% # Class of committed instruction
system.cpu.op_class_0::SimdShaSigma2                0      0.00%     69.36% # Class of committed instruction
system.cpu.op_class_0::SimdShaSigma3                0      0.00%     69.36% # Class of committed instruction
system.cpu.op_class_0::SimdPredAlu                  0      0.00%     69.36% # Class of committed instruction
system.cpu.op_class_0::MemRead                   3860     15.78%     85.14% # Class of committed instruction
system.cpu.op_class_0::MemWrite                  3635     14.86%    100.00% # Class of committed instruction
system.cpu.op_class_0::FloatMemRead                 0      0.00%    100.00% # Class of committed instruction
system.cpu.op_class_0::FloatMemWrite                0      0.00%    100.00% # Class of committed instruction
system.cpu.op_class_0::IprAccess                    0      0.00%    100.00% # Class of committed instruction
system.cpu.op_class_0::InstPrefetch                 0      0.00%    100.00% # Class of committed instruction
system.cpu.op_class_0::total                    24459                       # Class of committed instruction
system.cpu.tickCycles                           33683                       # Number of cycles that the object actually ticked
system.cpu.workload.numSyscalls                    10                       # Number of system calls
system.membus.snoop_filter.hit_multi_requests            5                       # Number of requests hitting in the snoop filter with multiple (>1) holders of the requested data.
system.membus.snoop_filter.hit_multi_snoops            0                       # Number of snoops hitting in the snoop filter with multiple (>1) holders of the requested data.
system.membus.snoop_filter.hit_single_requests          200                       # Number of requests hitting in the snoop filter with a single holder of the requested data.
system.membus.snoop_filter.hit_single_snoops            0                       # Number of snoops hitting in the snoop filter with a single holder of the requested data.
system.membus.snoop_filter.tot_requests           858                       # Total number of requests made to the snoop filter.
system.membus.snoop_filter.tot_snoops               0                       # Total number of snoops made to the snoop filter.
system.membus.pwrStateResidencyTicks::UNDEFINED     41045500                       # Cumulative time (in ticks) in various power states
system.membus.trans_dist::ReadResp                608                       # Transaction distribution
system.membus.trans_dist::WritebackClean          177                       # Transaction distribution
system.membus.trans_dist::CleanEvict                2                       # Transaction distribution
system.membus.trans_dist::ReadExReq                71                       # Transaction distribution
system.membus.trans_dist::ReadExResp               71                       # Transaction distribution
system.membus.trans_dist::ReadCleanReq            497                       # Transaction distribution
system.membus.trans_dist::ReadSharedReq           111                       # Transaction distribution
system.membus.pkt_count_system.cpu.icache.mem_side::system.mem_ctrls.port         1171                       # Packet count per connected master and slave (bytes)
system.membus.pkt_count_system.cpu.dcache.mem_side::system.mem_ctrls.port          366                       # Packet count per connected master and slave (bytes)
system.membus.pkt_count::total                   1537                       # Packet count per connected master and slave (bytes)
system.membus.pkt_size_system.cpu.icache.mem_side::system.mem_ctrls.port        43136                       # Cumulative packet size per connected master and slave (bytes)
system.membus.pkt_size_system.cpu.dcache.mem_side::system.mem_ctrls.port        11648                       # Cumulative packet size per connected master and slave (bytes)
system.membus.pkt_size::total                   54784                       # Cumulative packet size per connected master and slave (bytes)
system.membus.snoops                                0                       # Total snoops (count)
system.membus.snoopTraffic                          0                       # Total snoop traffic (bytes)
system.membus.snoop_fanout::samples               679                       # Request fanout histogram
system.membus.snoop_fanout::mean             0.038292                       # Request fanout histogram
system.membus.snoop_fanout::stdev            0.192041                       # Request fanout histogram
system.membus.snoop_fanout::underflows              0      0.00%      0.00% # Request fanout histogram
system.membus.snoop_fanout::0                     653     96.17%     96.17% # Request fanout histogram
system.membus.snoop_fanout::1                      26      3.83%    100.00% # Request fanout histogram
system.membus.snoop_fanout::2                       0      0.00%    100.00% # Request fanout histogram
system.membus.snoop_fanout::overflows               0      0.00%    100.00% # Request fanout histogram
system.membus.snoop_fanout::min_value               0                       # Request fanout histogram
system.membus.snoop_fanout::max_value               1                       # Request fanout histogram
system.membus.snoop_fanout::total                 679                       # Request fanout histogram
system.membus.reqLayer0.occupancy              783000                       # Layer occupancy (ticks)
system.membus.reqLayer0.utilization               1.9                       # Layer utilization (%)
system.membus.respLayer1.occupancy            1333500                       # Layer occupancy (ticks)
system.membus.respLayer1.utilization              3.2                       # Layer utilization (%)
system.membus.respLayer2.occupancy             492500                       # Layer occupancy (ticks)
system.membus.respLayer2.utilization              1.2                       # Layer utilization (%)
system.voltage_domain.voltage                       1                       # Voltage in Volts
system.clk_domain.clock                           500                       # Clock period in ticks
system.cpu_voltage_domain.voltage                   1                       # Voltage in Volts
system.mem_ctrls.pwrStateResidencyTicks::UNDEFINED     41045500                       # Cumulative time (in ticks) in various power states
system.mem_ctrls.bytes_read::.cpu.inst          31808                       # Number of bytes read from this memory
system.mem_ctrls.bytes_read::.cpu.data          11648                       # Number of bytes read from this memory
system.mem_ctrls.bytes_read::total              43456                       # Number of bytes read from this memory
system.mem_ctrls.bytes_inst_read::.cpu.inst        31808                       # Number of instructions bytes read from this memory
system.mem_ctrls.bytes_inst_read::total         31808                       # Number of instructions bytes read from this memory
system.mem_ctrls.num_reads::.cpu.inst             497                       # Number of read requests responded to by this memory
system.mem_ctrls.num_reads::.cpu.data             182                       # Number of read requests responded to by this memory
system.mem_ctrls.num_reads::total                 679                       # Number of read requests responded to by this memory
system.mem_ctrls.bw_read::.cpu.inst         774944878                       # Total read bandwidth from this memory (bytes/s)
system.mem_ctrls.bw_read::.cpu.data         283782631                       # Total read bandwidth from this memory (bytes/s)
system.mem_ctrls.bw_read::total            1058727510                       # Total read bandwidth from this memory (bytes/s)
system.mem_ctrls.bw_inst_read::.cpu.inst    774944878                       # Instruction read bandwidth from this memory (bytes/s)
system.mem_ctrls.bw_inst_read::total        774944878                       # Instruction read bandwidth from this memory (bytes/s)
system.mem_ctrls.bw_total::.cpu.inst        774944878                       # Total bandwidth to/from this memory (bytes/s)
system.mem_ctrls.bw_total::.cpu.data        283782631                       # Total bandwidth to/from this memory (bytes/s)
system.mem_ctrls.bw_total::total           1058727510                       # Total bandwidth to/from this memory (bytes/s)
system.mem_ctrls.avgPriority_.writebacks::samples        96.00                       # Average QoS priority value for accepted requests
system.mem_ctrls.avgPriority_.cpu.inst::samples       409.00                       # Average QoS priority value for accepted requests
system.mem_ctrls.avgPriority_.cpu.data::samples       181.00                       # Average QoS priority value for accepted requests
system.mem_ctrls.priorityMinLatency      0.000000018750                       # per QoS priority minimum request to response latency (s)
system.mem_ctrls.priorityMaxLatency      0.000036921500                       # per QoS priority maximum request to response latency (s)
system.mem_ctrls.numReadWriteTurnArounds            4                       # Number of turnarounds from READ to WRITE
system.mem_ctrls.numWriteReadTurnArounds            4                       # Number of turnarounds from WRITE to READ
system.mem_ctrls.numStayReadState                1353                       # Number of times bus staying in READ state
system.mem_ctrls.numStayWriteState                 62                       # Number of times bus staying in WRITE state
system.mem_ctrls.readReqs                         679                       # Number of read requests accepted
system.mem_ctrls.writeReqs                        172                       # Number of write requests accepted
system.mem_ctrls.readBursts                       679                       # Number of DRAM read bursts, including those serviced by the write queue
system.mem_ctrls.writeBursts                      172                       # Number of DRAM write bursts, including those merged in the write queue
system.mem_ctrls.servicedByWrQ                     89                       # Number of DRAM read bursts serviced by the write queue
system.mem_ctrls.mergedWrBursts                    76                       # Number of DRAM write bursts merged with an existing one
system.mem_ctrls.neitherReadNorWriteReqs            0                       # Number of requests that are neither read nor write
system.mem_ctrls.perBankRdBursts::0                56                       # Per bank write bursts
system.mem_ctrls.perBankRdBursts::1                 2                       # Per bank write bursts
system.mem_ctrls.perBankRdBursts::2                24                       # Per bank write bursts
system.mem_ctrls.perBankRdBursts::3                50                       # Per bank write bursts
system.mem_ctrls.perBankRdBursts::4                13                       # Per bank write bursts
system.mem_ctrls.perBankRdBursts::5                36                       # Per bank write bursts
system.mem_ctrls.perBankRdBursts::6                44                       # Per bank write bursts
system.mem_ctrls.perBankRdBursts::7                54                       # Per bank write bursts
system.mem_ctrls.perBankRdBursts::8               115                       # Per bank write bursts
system.mem_ctrls.perBankRdBursts::9                74                       # Per bank write bursts
system.mem_ctrls.perBankRdBursts::10               27                       # Per bank write bursts
system.mem_ctrls.perBankRdBursts::11               71                       # Per bank write bursts
system.mem_ctrls.perBankRdBursts::12               11                       # Per bank write bursts
system.mem_ctrls.perBankRdBursts::13                8                       # Per bank write bursts
system.mem_ctrls.perBankRdBursts::14                5                       # Per bank write bursts
system.mem_ctrls.perBankRdBursts::15                0                       # Per bank write bursts
system.mem_ctrls.perBankWrBursts::0                12                       # Per bank write bursts
system.mem_ctrls.perBankWrBursts::1                 0                       # Per bank write bursts
system.mem_ctrls.perBankWrBursts::2                 2                       # Per bank write bursts
system.mem_ctrls.perBankWrBursts::3                 0                       # Per bank write bursts
system.mem_ctrls.perBankWrBursts::4                 0                       # Per bank write bursts
system.mem_ctrls.perBankWrBursts::5                 0                       # Per bank write bursts
system.mem_ctrls.perBankWrBursts::6                 3                       # Per bank write bursts
system.mem_ctrls.perBankWrBursts::7                 9                       # Per bank write bursts
system.mem_ctrls.perBankWrBursts::8                17                       # Per bank write bursts
system.mem_ctrls.perBankWrBursts::9                 6                       # Per bank write bursts
system.mem_ctrls.perBankWrBursts::10                0                       # Per bank write bursts
system.mem_ctrls.perBankWrBursts::11               17                       # Per bank write bursts
system.mem_ctrls.perBankWrBursts::12                0                       # Per bank write bursts
system.mem_ctrls.perBankWrBursts::13                0                       # Per bank write bursts
system.mem_ctrls.perBankWrBursts::14                0                       # Per bank write bursts
system.mem_ctrls.perBankWrBursts::15                0                       # Per bank write bursts
system.mem_ctrls.avgRdQLen                       1.14                       # Average read queue length when enqueuing
system.mem_ctrls.avgWrQLen                      14.25                       # Average write queue length when enqueuing
system.mem_ctrls.totQLat                      3774000                       # Total ticks spent queuing
system.mem_ctrls.totBusLat                    2950000                       # Total ticks spent in databus transfers
system.mem_ctrls.totMemAccLat                14836500                       # Total ticks spent from burst creation until serviced by the DRAM
system.mem_ctrls.avgQLat                      6396.61                       # Average queueing delay per DRAM burst
system.mem_ctrls.avgBusLat                    5000.00                       # Average bus latency per DRAM burst
system.mem_ctrls.avgMemAccLat                25146.61                       # Average memory access latency per DRAM burst
system.mem_ctrls.numRdRetry                         0                       # Number of times read queue was full causing retry
system.mem_ctrls.numWrRetry                         0                       # Number of times write queue was full causing retry
system.mem_ctrls.readRowHits                      475                       # Number of row buffer hits during reads
system.mem_ctrls.writeRowHits                      56                       # Number of row buffer hits during writes
system.mem_ctrls.readRowHitRate                 80.51                       # Row buffer hit rate for reads
system.mem_ctrls.writeRowHitRate                58.33                       # Row buffer hit rate for writes
system.mem_ctrls.readPktSize::0                     0                       # Read request sizes (log2)
system.mem_ctrls.readPktSize::1                     0                       # Read request sizes (log2)
system.mem_ctrls.readPktSize::2                     0                       # Read request sizes (log2)
system.mem_ctrls.readPktSize::3                     0                       # Read request sizes (log2)
system.mem_ctrls.readPktSize::4                     0                       # Read request sizes (log2)
system.mem_ctrls.readPktSize::5                     0                       # Read request sizes (log2)
system.mem_ctrls.readPktSize::6                   679                       # Read request sizes (log2)
system.mem_ctrls.writePktSize::0                    0                       # Write request sizes (log2)
system.mem_ctrls.writePktSize::1                    0                       # Write request sizes (log2)
system.mem_ctrls.writePktSize::2                    0                       # Write request sizes (log2)
system.mem_ctrls.writePktSize::3                    0                       # Write request sizes (log2)
system.mem_ctrls.writePktSize::4                    0                       # Write request sizes (log2)
system.mem_ctrls.writePktSize::5                    0                       # Write request sizes (log2)
system.mem_ctrls.writePktSize::6                  172                       # Write request sizes (log2)
system.mem_ctrls.rdQLenPdf::0                     491                       # What read queue length does an incoming req see
system.mem_ctrls.rdQLenPdf::1                      95                       # What read queue length does an incoming req see
system.mem_ctrls.rdQLenPdf::2                       4                       # What read queue length does an incoming req see
system.mem_ctrls.rdQLenPdf::3                       0                       # What read queue length does an incoming req see
system.mem_ctrls.rdQLenPdf::4                       0                       # What read queue length does an incoming req see
system.mem_ctrls.rdQLenPdf::5                       0                       # What read queue length does an incoming req see
system.mem_ctrls.rdQLenPdf::6                       0                       # What read queue length does an incoming req see
system.mem_ctrls.rdQLenPdf::7                       0                       # What read queue length does an incoming req see
system.mem_ctrls.rdQLenPdf::8                       0                       # What read queue length does an incoming req see
system.mem_ctrls.rdQLenPdf::9                       0                       # What read queue length does an incoming req see
system.mem_ctrls.rdQLenPdf::10                      0                       # What read queue length does an incoming req see
system.mem_ctrls.rdQLenPdf::11                      0                       # What read queue length does an incoming req see
system.mem_ctrls.rdQLenPdf::12                      0                       # What read queue length does an incoming req see
system.mem_ctrls.rdQLenPdf::13                      0                       # What read queue length does an incoming req see
system.mem_ctrls.rdQLenPdf::14                      0                       # What read queue length does an incoming req see
system.mem_ctrls.rdQLenPdf::15                      0                       # What read queue length does an incoming req see
system.mem_ctrls.rdQLenPdf::16                      0                       # What read queue length does an incoming req see
system.mem_ctrls.rdQLenPdf::17                      0                       # What read queue length does an incoming req see
system.mem_ctrls.rdQLenPdf::18                      0                       # What read queue length does an incoming req see
system.mem_ctrls.rdQLenPdf::19                      0                       # What read queue length does an incoming req see
system.mem_ctrls.rdQLenPdf::20                      0                       # What read queue length does an incoming req see
system.mem_ctrls.rdQLenPdf::21                      0                       # What read queue length does an incoming req see
system.mem_ctrls.rdQLenPdf::22                      0                       # What read queue length does an incoming req see
system.mem_ctrls.rdQLenPdf::23                      0                       # What read queue length does an incoming req see
system.mem_ctrls.rdQLenPdf::24                      0                       # What read queue length does an incoming req see
system.mem_ctrls.rdQLenPdf::25                      0                       # What read queue length does an incoming req see
system.mem_ctrls.rdQLenPdf::26                      0                       # What read queue length does an incoming req see
system.mem_ctrls.rdQLenPdf::27                      0                       # What read queue length does an incoming req see
system.mem_ctrls.rdQLenPdf::28                      0                       # What read queue length does an incoming req see
system.mem_ctrls.rdQLenPdf::29                      0                       # What read queue length does an incoming req see
system.mem_ctrls.rdQLenPdf::30                      0                       # What read queue length does an incoming req see
system.mem_ctrls.rdQLenPdf::31                      0                       # What read queue length does an incoming req see
system.mem_ctrls.wrQLenPdf::0                       1                       # What write queue length does an incoming req see
system.mem_ctrls.wrQLenPdf::1                       1                       # What write queue length does an incoming req see
system.mem_ctrls.wrQLenPdf::2                       1                       # What write queue length does an incoming req see
system.mem_ctrls.wrQLenPdf::3                       1                       # What write queue length does an incoming req see
system.mem_ctrls.wrQLenPdf::4                       1                       # What write queue length does an incoming req see
system.mem_ctrls.wrQLenPdf::5                       1                       # What write queue length does an incoming req see
system.mem_ctrls.wrQLenPdf::6                       1                       # What write queue length does an incoming req see
system.mem_ctrls.wrQLenPdf::7                       1                       # What write queue length does an incoming req see
system.mem_ctrls.wrQLenPdf::8                       1                       # What write queue length does an incoming req see
system.mem_ctrls.wrQLenPdf::9                       1                       # What write queue length does an incoming req see
system.mem_ctrls.wrQLenPdf::10                      1                       # What write queue length does an incoming req see
system.mem_ctrls.wrQLenPdf::11                      1                       # What write queue length does an incoming req see
system.mem_ctrls.wrQLenPdf::12                      1                       # What write queue length does an incoming req see
system.mem_ctrls.wrQLenPdf::13                      1                       # What write queue length does an incoming req see
system.mem_ctrls.wrQLenPdf::14                      1                       # What write queue length does an incoming req see
system.mem_ctrls.wrQLenPdf::15                      2                       # What write queue length does an incoming req see
system.mem_ctrls.wrQLenPdf::16                      2                       # What write queue length does an incoming req see
system.mem_ctrls.wrQLenPdf::17                      5                       # What write queue length does an incoming req see
system.mem_ctrls.wrQLenPdf::18                      5                       # What write queue length does an incoming req see
system.mem_ctrls.wrQLenPdf::19                      5                       # What write queue length does an incoming req see
system.mem_ctrls.wrQLenPdf::20                      5                       # What write queue length does an incoming req see
system.mem_ctrls.wrQLenPdf::21                      5                       # What write queue length does an incoming req see
system.mem_ctrls.wrQLenPdf::22                      5                       # What write queue length does an incoming req see
system.mem_ctrls.wrQLenPdf::23                      5                       # What write queue length does an incoming req see
system.mem_ctrls.wrQLenPdf::24                      5                       # What write queue length does an incoming req see
system.mem_ctrls.wrQLenPdf::25                      5                       # What write queue length does an incoming req see
system.mem_ctrls.wrQLenPdf::26                      5                       # What write queue length does an incoming req see
system.mem_ctrls.wrQLenPdf::27                      5                       # What write queue length does an incoming req see
system.mem_ctrls.wrQLenPdf::28                      5                       # What write queue length does an incoming req see
system.mem_ctrls.wrQLenPdf::29                      5                       # What write queue length does an incoming req see
system.mem_ctrls.wrQLenPdf::30                      4                       # What write queue length does an incoming req see
system.mem_ctrls.wrQLenPdf::31                      4                       # What write queue length does an incoming req see
system.mem_ctrls.wrQLenPdf::32                      4                       # What write queue length does an incoming req see
system.mem_ctrls.wrQLenPdf::33                      0                       # What write queue length does an incoming req see
system.mem_ctrls.wrQLenPdf::34                      0                       # What write queue length does an incoming req see
system.mem_ctrls.wrQLenPdf::35                      0                       # What write queue length does an incoming req see
system.mem_ctrls.wrQLenPdf::36                      0                       # What write queue length does an incoming req see
system.mem_ctrls.wrQLenPdf::37                      0                       # What write queue length does an incoming req see
system.mem_ctrls.wrQLenPdf::38                      0                       # What write queue length does an incoming req see
system.mem_ctrls.wrQLenPdf::39                      0                       # What write queue length does an incoming req see
system.mem_ctrls.wrQLenPdf::40                      0                       # What write queue length does an incoming req see
system.mem_ctrls.wrQLenPdf::41                      0                       # What write queue length does an incoming req see
system.mem_ctrls.wrQLenPdf::42                      0                       # What write queue length does an incoming req see
system.mem_ctrls.wrQLenPdf::43                      0                       # What write queue length does an incoming req see
system.mem_ctrls.wrQLenPdf::44                      0                       # What write queue length does an incoming req see
system.mem_ctrls.wrQLenPdf::45                      0                       # What write queue length does an incoming req see
system.mem_ctrls.wrQLenPdf::46                      0                       # What write queue length does an incoming req see
system.mem_ctrls.wrQLenPdf::47                      0                       # What write queue length does an incoming req see
system.mem_ctrls.wrQLenPdf::48                      0                       # What write queue length does an incoming req see
system.mem_ctrls.wrQLenPdf::49                      0                       # What write queue length does an incoming req see
system.mem_ctrls.wrQLenPdf::50                      0                       # What write queue length does an incoming req see
system.mem_ctrls.wrQLenPdf::51                      0                       # What write queue length does an incoming req see
system.mem_ctrls.wrQLenPdf::52                      0                       # What write queue length does an incoming req see
system.mem_ctrls.wrQLenPdf::53                      0                       # What write queue length does an incoming req see
system.mem_ctrls.wrQLenPdf::54                      0                       # What write queue length does an incoming req see
system.mem_ctrls.wrQLenPdf::55                      0                       # What write queue length does an incoming req see
system.mem_ctrls.wrQLenPdf::56                      0                       # What write queue length does an incoming req see
system.mem_ctrls.wrQLenPdf::57                      0                       # What write queue length does an incoming req see
system.mem_ctrls.wrQLenPdf::58                      0                       # What write queue length does an incoming req see
system.mem_ctrls.wrQLenPdf::59                      0                       # What write queue length does an incoming req see
system.mem_ctrls.wrQLenPdf::60                      0                       # What write queue length does an incoming req see
system.mem_ctrls.wrQLenPdf::61                      0                       # What write queue length does an incoming req see
system.mem_ctrls.wrQLenPdf::62                      0                       # What write queue length does an incoming req see
system.mem_ctrls.wrQLenPdf::63                      0                       # What write queue length does an incoming req see
system.mem_ctrls.bytesPerActivate::samples          119                       # Bytes accessed per row activation
system.mem_ctrls.bytesPerActivate::mean    335.058824                       # Bytes accessed per row activation
system.mem_ctrls.bytesPerActivate::gmean   228.732854                       # Bytes accessed per row activation
system.mem_ctrls.bytesPerActivate::stdev   294.313430                       # Bytes accessed per row activation
system.mem_ctrls.bytesPerActivate::0-127           24     20.17%     20.17% # Bytes accessed per row activation
system.mem_ctrls.bytesPerActivate::128-255           35     29.41%     49.58% # Bytes accessed per row activation
system.mem_ctrls.bytesPerActivate::256-383           22     18.49%     68.07% # Bytes accessed per row activation
system.mem_ctrls.bytesPerActivate::384-511           11      9.24%     77.31% # Bytes accessed per row activation
system.mem_ctrls.bytesPerActivate::512-639            3      2.52%     79.83% # Bytes accessed per row activation
system.mem_ctrls.bytesPerActivate::640-767            9      7.56%     87.39% # Bytes accessed per row activation
system.mem_ctrls.bytesPerActivate::768-895            3      2.52%     89.92% # Bytes accessed per row activation
system.mem_ctrls.bytesPerActivate::896-1023            2      1.68%     91.60% # Bytes accessed per row activation
system.mem_ctrls.bytesPerActivate::1024-1151           10      8.40%    100.00% # Bytes accessed per row activation
system.mem_ctrls.bytesPerActivate::total          119                       # Bytes accessed per row activation
system.mem_ctrls.rdPerTurnAround::samples            4                       # Reads before turning the bus around for writes
system.mem_ctrls.rdPerTurnAround::mean     134.500000                       # Reads before turning the bus around for writes
system.mem_ctrls.rdPerTurnAround::gmean     70.872215                       # Reads before turning the bus around for writes
system.mem_ctrls.rdPerTurnAround::stdev    185.631355                       # Reads before turning the bus around for writes
system.mem_ctrls.rdPerTurnAround::16-31             1     25.00%     25.00% # Reads before turning the bus around for writes
system.mem_ctrls.rdPerTurnAround::32-47             1     25.00%     50.00% # Reads before turning the bus around for writes
system.mem_ctrls.rdPerTurnAround::48-63             1     25.00%     75.00% # Reads before turning the bus around for writes
system.mem_ctrls.rdPerTurnAround::400-415            1     25.00%    100.00% # Reads before turning the bus around for writes
system.mem_ctrls.rdPerTurnAround::total             4                       # Reads before turning the bus around for writes
system.mem_ctrls.wrPerTurnAround::samples            4                       # Writes before turning the bus around for reads
system.mem_ctrls.wrPerTurnAround::mean      16.500000                       # Writes before turning the bus around for reads
system.mem_ctrls.wrPerTurnAround::gmean     16.478137                       # Writes before turning the bus around for reads
system.mem_ctrls.wrPerTurnAround::stdev             1                       # Writes before turning the bus around for reads
system.mem_ctrls.wrPerTurnAround::16                3     75.00%     75.00% # Writes before turning the bus around for reads
system.mem_ctrls.wrPerTurnAround::18                1     25.00%    100.00% # Writes before turning the bus around for reads
system.mem_ctrls.wrPerTurnAround::total             4                       # Writes before turning the bus around for reads
system.mem_ctrls.bytesReadDRAM                  37760                       # Total number of bytes read from DRAM
system.mem_ctrls.bytesReadWrQ                    5696                       # Total number of bytes read from write queue
system.mem_ctrls.bytesWritten                    4224                       # Total number of bytes written to DRAM
system.mem_ctrls.bytesReadSys                   43456                       # Total read bytes from the system interface side
system.mem_ctrls.bytesWrittenSys                11008                       # Total written bytes from the system interface side
system.mem_ctrls.avgRdBW                       919.95                       # Average DRAM read bandwidth in MiByte/s
system.mem_ctrls.avgWrBW                       102.91                       # Average achieved write bandwidth in MiByte/s
system.mem_ctrls.avgRdBWSys                   1058.73                       # Average system read bandwidth in MiByte/s
system.mem_ctrls.avgWrBWSys                    268.19                       # Average system write bandwidth in MiByte/s
system.mem_ctrls.peakBW                      12800.00                       # Theoretical peak bandwidth in MiByte/s
system.mem_ctrls.busUtil                         7.99                       # Data bus utilization in percentage
system.mem_ctrls.busUtilRead                     7.19                       # Data bus utilization in percentage for reads
system.mem_ctrls.busUtilWrite                    0.80                       # Data bus utilization in percentage for writes
system.mem_ctrls.totGap                      40992000                       # Total gap between requests
system.mem_ctrls.avgGap                      48169.21                       # Average gap between requests
system.mem_ctrls.masterReadBytes::.cpu.inst        26176                       # Per-master bytes read from memory
system.mem_ctrls.masterReadBytes::.cpu.data        11584                       # Per-master bytes read from memory
system.mem_ctrls.masterWriteBytes::.writebacks         4224                       # Per-master bytes write to memory
system.mem_ctrls.masterReadRate::.cpu.inst 637731298.193468213081                       # Per-master bytes read from memory rate (Bytes/sec)
system.mem_ctrls.masterReadRate::.cpu.data 282223386.242097198963                       # Per-master bytes read from memory rate (Bytes/sec)
system.mem_ctrls.masterWriteRate::.writebacks 102910185.038554772735                       # Per-master bytes write to memory rate (Bytes/sec)
system.mem_ctrls.masterReadAccesses::.cpu.inst          497                       # Per-master read serviced memory accesses
system.mem_ctrls.masterReadAccesses::.cpu.data          182                       # Per-master read serviced memory accesses
system.mem_ctrls.masterWriteAccesses::.writebacks          172                       # Per-master write serviced memory accesses
system.mem_ctrls.masterReadTotalLat::.cpu.inst     10249000                       # Per-master read total memory access latency
system.mem_ctrls.masterReadTotalLat::.cpu.data      4587500                       # Per-master read total memory access latency
system.mem_ctrls.masterWriteTotalLat::.writebacks    374666000                       # Per-master write total memory access latency
system.mem_ctrls.masterReadAvgLat::.cpu.inst     20621.73                       # Per-master read average memory access latency
system.mem_ctrls.masterReadAvgLat::.cpu.data     25206.04                       # Per-master read average memory access latency
system.mem_ctrls.masterWriteAvgLat::.writebacks   2178290.70                       # Per-master write average memory access latency
system.mem_ctrls.pageHitRate                    77.41                       # Row buffer hit rate, read and write combined
system.mem_ctrls.rank1.actEnergy               528360                       # Energy for activate commands per rank (pJ)
system.mem_ctrls.rank1.preEnergy               269445                       # Energy for precharge commands per rank (pJ)
system.mem_ctrls.rank1.readEnergy             2220540                       # Energy for read commands per rank (pJ)
system.mem_ctrls.rank1.writeEnergy             208800                       # Energy for write commands per rank (pJ)
system.mem_ctrls.rank1.refreshEnergy     3073200.000000                       # Energy for refresh commands per rank (pJ)
system.mem_ctrls.rank1.actBackEnergy         16943820                       # Energy for active background per rank (pJ)
system.mem_ctrls.rank1.preBackEnergy          1493280                       # Energy for precharge background per rank (pJ)
system.mem_ctrls.rank1.actPowerDownEnergy            0                       # Energy for active power-down per rank (pJ)
system.mem_ctrls.rank1.prePowerDownEnergy            0                       # Energy for precharge power-down per rank (pJ)
system.mem_ctrls.rank1.selfRefreshEnergy            0                       # Energy for self refresh per rank (pJ)
system.mem_ctrls.rank1.totalEnergy           24737445                       # Total energy per rank (pJ)
system.mem_ctrls.rank1.averagePower        602.683485                       # Core power per rank (mW)
system.mem_ctrls.rank1.totalIdleTime                0                       # Total Idle time Per DRAM Rank
system.mem_ctrls.rank1.memoryStateTime::IDLE      3748750                       # Time in different power states
system.mem_ctrls.rank1.memoryStateTime::REF      1300000                       # Time in different power states
system.mem_ctrls.rank1.memoryStateTime::SREF            0                       # Time in different power states
system.mem_ctrls.rank1.memoryStateTime::PRE_PDN            0                       # Time in different power states
system.mem_ctrls.rank1.memoryStateTime::ACT     35996750                       # Time in different power states
system.mem_ctrls.rank1.memoryStateTime::ACT_PDN            0                       # Time in different power states
system.mem_ctrls.rank0.actEnergy               364140                       # Energy for activate commands per rank (pJ)
system.mem_ctrls.rank0.preEnergy               182160                       # Energy for precharge commands per rank (pJ)
system.mem_ctrls.rank0.readEnergy             1992060                       # Energy for read commands per rank (pJ)
system.mem_ctrls.rank0.writeEnergy             135720                       # Energy for write commands per rank (pJ)
system.mem_ctrls.rank0.refreshEnergy     3073200.000000                       # Energy for refresh commands per rank (pJ)
system.mem_ctrls.rank0.actBackEnergy         15104430                       # Energy for active background per rank (pJ)
system.mem_ctrls.rank0.preBackEnergy          3042240                       # Energy for precharge background per rank (pJ)
system.mem_ctrls.rank0.actPowerDownEnergy            0                       # Energy for active power-down per rank (pJ)
system.mem_ctrls.rank0.prePowerDownEnergy            0                       # Energy for precharge power-down per rank (pJ)
system.mem_ctrls.rank0.selfRefreshEnergy            0                       # Energy for self refresh per rank (pJ)
system.mem_ctrls.rank0.totalEnergy           23893950                       # Total energy per rank (pJ)
system.mem_ctrls.rank0.averagePower        582.133242                       # Core power per rank (mW)
system.mem_ctrls.rank0.totalIdleTime                0                       # Total Idle time Per DRAM Rank
system.mem_ctrls.rank0.memoryStateTime::IDLE      7755000                       # Time in different power states
system.mem_ctrls.rank0.memoryStateTime::REF      1300000                       # Time in different power states
system.mem_ctrls.rank0.memoryStateTime::SREF            0                       # Time in different power states
system.mem_ctrls.rank0.memoryStateTime::PRE_PDN            0                       # Time in different power states
system.mem_ctrls.rank0.memoryStateTime::ACT     31990500                       # Time in different power states
system.mem_ctrls.rank0.memoryStateTime::ACT_PDN            0                       # Time in different power states
system.cpu_clk_domain.clock                       500                       # Clock period in ticks
system.cpu.pwrStateResidencyTicks::ON        41045500                       # Cumulative time (in ticks) in various power states
system.cpu.icache.pwrStateResidencyTicks::UNDEFINED     41045500                       # Cumulative time (in ticks) in various power states
system.cpu.icache.demand_hits::.cpu.inst         7385                       # number of demand (read+write) hits
system.cpu.icache.demand_hits::total             7385                       # number of demand (read+write) hits
system.cpu.icache.overall_hits::.cpu.inst         7385                       # number of overall hits
system.cpu.icache.overall_hits::total            7385                       # number of overall hits
system.cpu.icache.demand_misses::.cpu.inst          497                       # number of demand (read+write) misses
system.cpu.icache.demand_misses::total            497                       # number of demand (read+write) misses
system.cpu.icache.overall_misses::.cpu.inst          497                       # number of overall misses
system.cpu.icache.overall_misses::total           497                       # number of overall misses
system.cpu.icache.demand_miss_latency::.cpu.inst     22935000                       # number of demand (read+write) miss cycles
system.cpu.icache.demand_miss_latency::total     22935000                       # number of demand (read+write) miss cycles
system.cpu.icache.overall_miss_latency::.cpu.inst     22935000                       # number of overall miss cycles
system.cpu.icache.overall_miss_latency::total     22935000                       # number of overall miss cycles
system.cpu.icache.demand_accesses::.cpu.inst         7882                       # number of demand (read+write) accesses
system.cpu.icache.demand_accesses::total         7882                       # number of demand (read+write) accesses
system.cpu.icache.overall_accesses::.cpu.inst         7882                       # number of overall (read+write) accesses
system.cpu.icache.overall_accesses::total         7882                       # number of overall (read+write) accesses
system.cpu.icache.demand_miss_rate::.cpu.inst     0.063055                       # miss rate for demand accesses
system.cpu.icache.demand_miss_rate::total     0.063055                       # miss rate for demand accesses
system.cpu.icache.overall_miss_rate::.cpu.inst     0.063055                       # miss rate for overall accesses
system.cpu.icache.overall_miss_rate::total     0.063055                       # miss rate for overall accesses
system.cpu.icache.demand_avg_miss_latency::.cpu.inst 46146.881288                       # average overall miss latency
system.cpu.icache.demand_avg_miss_latency::total 46146.881288                       # average overall miss latency
system.cpu.icache.overall_avg_miss_latency::.cpu.inst 46146.881288                       # average overall miss latency
system.cpu.icache.overall_avg_miss_latency::total 46146.881288                       # average overall miss latency
system.cpu.icache.blocked_cycles::no_mshrs            0                       # number of cycles access was blocked
system.cpu.icache.blocked_cycles::no_targets            0                       # number of cycles access was blocked
system.cpu.icache.blocked::no_mshrs                 0                       # number of cycles access was blocked
system.cpu.icache.blocked::no_targets               0                       # number of cycles access was blocked
system.cpu.icache.avg_blocked_cycles::no_mshrs          nan                       # average number of cycles each access was blocked
system.cpu.icache.avg_blocked_cycles::no_targets          nan                       # average number of cycles each access was blocked
system.cpu.icache.writebacks::.writebacks          177                       # number of writebacks
system.cpu.icache.writebacks::total               177                       # number of writebacks
system.cpu.icache.demand_mshr_misses::.cpu.inst          497                       # number of demand (read+write) MSHR misses
system.cpu.icache.demand_mshr_misses::total          497                       # number of demand (read+write) MSHR misses
system.cpu.icache.overall_mshr_misses::.cpu.inst          497                       # number of overall MSHR misses
system.cpu.icache.overall_mshr_misses::total          497                       # number of overall MSHR misses
system.cpu.icache.demand_mshr_miss_latency::.cpu.inst     22438000                       # number of demand (read+write) MSHR miss cycles
system.cpu.icache.demand_mshr_miss_latency::total     22438000                       # number of demand (read+write) MSHR miss cycles
system.cpu.icache.overall_mshr_miss_latency::.cpu.inst     22438000                       # number of overall MSHR miss cycles
system.cpu.icache.overall_mshr_miss_latency::total     22438000                       # number of overall MSHR miss cycles
system.cpu.icache.demand_mshr_miss_rate::.cpu.inst     0.063055                       # mshr miss rate for demand accesses
system.cpu.icache.demand_mshr_miss_rate::total     0.063055                       # mshr miss rate for demand accesses
system.cpu.icache.overall_mshr_miss_rate::.cpu.inst     0.063055                       # mshr miss rate for overall accesses
system.cpu.icache.overall_mshr_miss_rate::total     0.063055                       # mshr miss rate for overall accesses
system.cpu.icache.demand_avg_mshr_miss_latency::.cpu.inst 45146.881288                       # average overall mshr miss latency
system.cpu.icache.demand_avg_mshr_miss_latency::total 45146.881288                       # average overall mshr miss latency
system.cpu.icache.overall_avg_mshr_miss_latency::.cpu.inst 45146.881288                       # average overall mshr miss latency
system.cpu.icache.overall_avg_mshr_miss_latency::total 45146.881288                       # average overall mshr miss latency
system.cpu.icache.replacements                    177                       # number of replacements
system.cpu.icache.ReadReq_hits::.cpu.inst         7385                       # number of ReadReq hits
system.cpu.icache.ReadReq_hits::total            7385                       # number of ReadReq hits
system.cpu.icache.ReadReq_misses::.cpu.inst          497                       # number of ReadReq misses
system.cpu.icache.ReadReq_misses::total           497                       # number of ReadReq misses
system.cpu.icache.ReadReq_miss_latency::.cpu.inst     22935000                       # number of ReadReq miss cycles
system.cpu.icache.ReadReq_miss_latency::total     22935000                       # number of ReadReq miss cycles
system.cpu.icache.ReadReq_accesses::.cpu.inst         7882                       # number of ReadReq accesses(hits+misses)
system.cpu.icache.ReadReq_accesses::total         7882                       # number of ReadReq accesses(hits+misses)
system.cpu.icache.ReadReq_miss_rate::.cpu.inst     0.063055                       # miss rate for ReadReq accesses
system.cpu.icache.ReadReq_miss_rate::total     0.063055                       # miss rate for ReadReq accesses
system.cpu.icache.ReadReq_avg_miss_latency::.cpu.inst 46146.881288                       # average ReadReq miss latency
system.cpu.icache.ReadReq_avg_miss_latency::total 46146.881288                       # average ReadReq miss latency
system.cpu.icache.ReadReq_mshr_misses::.cpu.inst          497                       # number of ReadReq MSHR misses
system.cpu.icache.ReadReq_mshr_misses::total          497                       # number of ReadReq MSHR misses
system.cpu.icache.ReadReq_mshr_miss_latency::.cpu.inst     22438000                       # number of ReadReq MSHR miss cycles
system.cpu.icache.ReadReq_mshr_miss_latency::total     22438000                       # number of ReadReq MSHR miss cycles
system.cpu.icache.ReadReq_mshr_miss_rate::.cpu.inst     0.063055                       # mshr miss rate for ReadReq accesses
system.cpu.icache.ReadReq_mshr_miss_rate::total     0.063055                       # mshr miss rate for ReadReq accesses
system.cpu.icache.ReadReq_avg_mshr_miss_latency::.cpu.inst 45146.881288                       # average ReadReq mshr miss latency
system.cpu.icache.ReadReq_avg_mshr_miss_latency::total 45146.881288                       # average ReadReq mshr miss latency
system.cpu.icache.tags.pwrStateResidencyTicks::UNDEFINED     41045500                       # Cumulative time (in ticks) in various power states
system.cpu.icache.tags.tagsinuse           205.408939                       # Cycle average of tags in use
system.cpu.icache.tags.total_refs                7882                       # Total number of references to valid blocks.
system.cpu.icache.tags.sampled_refs               497                       # Sample count of references to valid blocks.
system.cpu.icache.tags.avg_refs             15.859155                       # Average number of references to valid blocks.
system.cpu.icache.tags.warmup_cycle             71500                       # Cycle when the warmup percentage was hit.
system.cpu.icache.tags.occ_blocks::.cpu.inst   205.408939                       # Average occupied blocks per requestor
system.cpu.icache.tags.occ_percent::.cpu.inst     0.401189                       # Average percentage of cache occupancy
system.cpu.icache.tags.occ_percent::total     0.401189                       # Average percentage of cache occupancy
system.cpu.icache.tags.occ_task_id_blocks::1024          320                       # Occupied blocks per task id
system.cpu.icache.tags.age_task_id_blocks_1024::0           55                       # Occupied blocks per task id
system.cpu.icache.tags.age_task_id_blocks_1024::1          265                       # Occupied blocks per task id
system.cpu.icache.tags.occ_task_id_percent::1024     0.625000                       # Percentage of cache occupancy per task id
system.cpu.icache.tags.tag_accesses             16261                       # Number of tag accesses
system.cpu.icache.tags.data_accesses            16261                       # Number of data accesses
system.cpu.dtb.walker.pwrStateResidencyTicks::UNDEFINED     41045500                       # Cumulative time (in ticks) in various power states
system.cpu.dtb.stage2_mmu.stage2_tlb.walker.pwrStateResidencyTicks::UNDEFINED     41045500                       # Cumulative time (in ticks) in various power states
system.cpu.dcache.pwrStateResidencyTicks::UNDEFINED     41045500                       # Cumulative time (in ticks) in various power states
system.cpu.dcache.demand_hits::.cpu.data         7181                       # number of demand (read+write) hits
system.cpu.dcache.demand_hits::total             7181                       # number of demand (read+write) hits
system.cpu.dcache.overall_hits::.cpu.data         7202                       # number of overall hits
system.cpu.dcache.overall_hits::total            7202                       # number of overall hits
system.cpu.dcache.demand_misses::.cpu.data          227                       # number of demand (read+write) misses
system.cpu.dcache.demand_misses::total            227                       # number of demand (read+write) misses
system.cpu.dcache.overall_misses::.cpu.data          235                       # number of overall misses
system.cpu.dcache.overall_misses::total           235                       # number of overall misses
system.cpu.dcache.demand_miss_latency::.cpu.data     11867500                       # number of demand (read+write) miss cycles
system.cpu.dcache.demand_miss_latency::total     11867500                       # number of demand (read+write) miss cycles
system.cpu.dcache.overall_miss_latency::.cpu.data     11867500                       # number of overall miss cycles
system.cpu.dcache.overall_miss_latency::total     11867500                       # number of overall miss cycles
system.cpu.dcache.demand_accesses::.cpu.data         7408                       # number of demand (read+write) accesses
system.cpu.dcache.demand_accesses::total         7408                       # number of demand (read+write) accesses
system.cpu.dcache.overall_accesses::.cpu.data         7437                       # number of overall (read+write) accesses
system.cpu.dcache.overall_accesses::total         7437                       # number of overall (read+write) accesses
system.cpu.dcache.demand_miss_rate::.cpu.data     0.030643                       # miss rate for demand accesses
system.cpu.dcache.demand_miss_rate::total     0.030643                       # miss rate for demand accesses
system.cpu.dcache.overall_miss_rate::.cpu.data     0.031599                       # miss rate for overall accesses
system.cpu.dcache.overall_miss_rate::total     0.031599                       # miss rate for overall accesses
system.cpu.dcache.demand_avg_miss_latency::.cpu.data 52279.735683                       # average overall miss latency
system.cpu.dcache.demand_avg_miss_latency::total 52279.735683                       # average overall miss latency
system.cpu.dcache.overall_avg_miss_latency::.cpu.data        50500                       # average overall miss latency
system.cpu.dcache.overall_avg_miss_latency::total        50500                       # average overall miss latency
system.cpu.dcache.blocked_cycles::no_mshrs            0                       # number of cycles access was blocked
system.cpu.dcache.blocked_cycles::no_targets            0                       # number of cycles access was blocked
system.cpu.dcache.blocked::no_mshrs                 0                       # number of cycles access was blocked
system.cpu.dcache.blocked::no_targets               0                       # number of cycles access was blocked
system.cpu.dcache.avg_blocked_cycles::no_mshrs          nan                       # average number of cycles each access was blocked
system.cpu.dcache.avg_blocked_cycles::no_targets          nan                       # average number of cycles each access was blocked
system.cpu.dcache.demand_mshr_hits::.cpu.data           52                       # number of demand (read+write) MSHR hits
system.cpu.dcache.demand_mshr_hits::total           52                       # number of demand (read+write) MSHR hits
system.cpu.dcache.overall_mshr_hits::.cpu.data           52                       # number of overall MSHR hits
system.cpu.dcache.overall_mshr_hits::total           52                       # number of overall MSHR hits
system.cpu.dcache.demand_mshr_misses::.cpu.data          175                       # number of demand (read+write) MSHR misses
system.cpu.dcache.demand_mshr_misses::total          175                       # number of demand (read+write) MSHR misses
system.cpu.dcache.overall_mshr_misses::.cpu.data          182                       # number of overall MSHR misses
system.cpu.dcache.overall_mshr_misses::total          182                       # number of overall MSHR misses
system.cpu.dcache.demand_mshr_miss_latency::.cpu.data      9001500                       # number of demand (read+write) MSHR miss cycles
system.cpu.dcache.demand_mshr_miss_latency::total      9001500                       # number of demand (read+write) MSHR miss cycles
system.cpu.dcache.overall_mshr_miss_latency::.cpu.data      9365500                       # number of overall MSHR miss cycles
system.cpu.dcache.overall_mshr_miss_latency::total      9365500                       # number of overall MSHR miss cycles
system.cpu.dcache.demand_mshr_miss_rate::.cpu.data     0.023623                       # mshr miss rate for demand accesses
system.cpu.dcache.demand_mshr_miss_rate::total     0.023623                       # mshr miss rate for demand accesses
system.cpu.dcache.overall_mshr_miss_rate::.cpu.data     0.024472                       # mshr miss rate for overall accesses
system.cpu.dcache.overall_mshr_miss_rate::total     0.024472                       # mshr miss rate for overall accesses
system.cpu.dcache.demand_avg_mshr_miss_latency::.cpu.data 51437.142857                       # average overall mshr miss latency
system.cpu.dcache.demand_avg_mshr_miss_latency::total 51437.142857                       # average overall mshr miss latency
system.cpu.dcache.overall_avg_mshr_miss_latency::.cpu.data 51458.791209                       # average overall mshr miss latency
system.cpu.dcache.overall_avg_mshr_miss_latency::total 51458.791209                       # average overall mshr miss latency
system.cpu.dcache.replacements                      2                       # number of replacements
system.cpu.dcache.ReadReq_hits::.cpu.data         3844                       # number of ReadReq hits
system.cpu.dcache.ReadReq_hits::total            3844                       # number of ReadReq hits
system.cpu.dcache.ReadReq_misses::.cpu.data          107                       # number of ReadReq misses
system.cpu.dcache.ReadReq_misses::total           107                       # number of ReadReq misses
system.cpu.dcache.ReadReq_miss_latency::.cpu.data      5589000                       # number of ReadReq miss cycles
system.cpu.dcache.ReadReq_miss_latency::total      5589000                       # number of ReadReq miss cycles
system.cpu.dcache.ReadReq_accesses::.cpu.data         3951                       # number of ReadReq accesses(hits+misses)
system.cpu.dcache.ReadReq_accesses::total         3951                       # number of ReadReq accesses(hits+misses)
system.cpu.dcache.ReadReq_miss_rate::.cpu.data     0.027082                       # miss rate for ReadReq accesses
system.cpu.dcache.ReadReq_miss_rate::total     0.027082                       # miss rate for ReadReq accesses
system.cpu.dcache.ReadReq_avg_miss_latency::.cpu.data 52233.644860                       # average ReadReq miss latency
system.cpu.dcache.ReadReq_avg_miss_latency::total 52233.644860                       # average ReadReq miss latency
system.cpu.dcache.ReadReq_mshr_hits::.cpu.data            3                       # number of ReadReq MSHR hits
system.cpu.dcache.ReadReq_mshr_hits::total            3                       # number of ReadReq MSHR hits
system.cpu.dcache.ReadReq_mshr_misses::.cpu.data          104                       # number of ReadReq MSHR misses
system.cpu.dcache.ReadReq_mshr_misses::total          104                       # number of ReadReq MSHR misses
system.cpu.dcache.ReadReq_mshr_miss_latency::.cpu.data      5332500                       # number of ReadReq MSHR miss cycles
system.cpu.dcache.ReadReq_mshr_miss_latency::total      5332500                       # number of ReadReq MSHR miss cycles
system.cpu.dcache.ReadReq_mshr_miss_rate::.cpu.data     0.026322                       # mshr miss rate for ReadReq accesses
system.cpu.dcache.ReadReq_mshr_miss_rate::total     0.026322                       # mshr miss rate for ReadReq accesses
system.cpu.dcache.ReadReq_avg_mshr_miss_latency::.cpu.data 51274.038462                       # average ReadReq mshr miss latency
system.cpu.dcache.ReadReq_avg_mshr_miss_latency::total 51274.038462                       # average ReadReq mshr miss latency
system.cpu.dcache.WriteReq_hits::.cpu.data         3337                       # number of WriteReq hits
system.cpu.dcache.WriteReq_hits::total           3337                       # number of WriteReq hits
system.cpu.dcache.WriteReq_misses::.cpu.data          120                       # number of WriteReq misses
system.cpu.dcache.WriteReq_misses::total          120                       # number of WriteReq misses
system.cpu.dcache.WriteReq_miss_latency::.cpu.data      6278500                       # number of WriteReq miss cycles
system.cpu.dcache.WriteReq_miss_latency::total      6278500                       # number of WriteReq miss cycles
system.cpu.dcache.WriteReq_accesses::.cpu.data         3457                       # number of WriteReq accesses(hits+misses)
system.cpu.dcache.WriteReq_accesses::total         3457                       # number of WriteReq accesses(hits+misses)
system.cpu.dcache.WriteReq_miss_rate::.cpu.data     0.034712                       # miss rate for WriteReq accesses
system.cpu.dcache.WriteReq_miss_rate::total     0.034712                       # miss rate for WriteReq accesses
system.cpu.dcache.WriteReq_avg_miss_latency::.cpu.data 52320.833333                       # average WriteReq miss latency
system.cpu.dcache.WriteReq_avg_miss_latency::total 52320.833333                       # average WriteReq miss latency
system.cpu.dcache.WriteReq_mshr_hits::.cpu.data           49                       # number of WriteReq MSHR hits
system.cpu.dcache.WriteReq_mshr_hits::total           49                       # number of WriteReq MSHR hits
system.cpu.dcache.WriteReq_mshr_misses::.cpu.data           71                       # number of WriteReq MSHR misses
system.cpu.dcache.WriteReq_mshr_misses::total           71                       # number of WriteReq MSHR misses
system.cpu.dcache.WriteReq_mshr_miss_latency::.cpu.data      3669000                       # number of WriteReq MSHR miss cycles
system.cpu.dcache.WriteReq_mshr_miss_latency::total      3669000                       # number of WriteReq MSHR miss cycles
system.cpu.dcache.WriteReq_mshr_miss_rate::.cpu.data     0.020538                       # mshr miss rate for WriteReq accesses
system.cpu.dcache.WriteReq_mshr_miss_rate::total     0.020538                       # mshr miss rate for WriteReq accesses
system.cpu.dcache.WriteReq_avg_mshr_miss_latency::.cpu.data 51676.056338                       # average WriteReq mshr miss latency
system.cpu.dcache.WriteReq_avg_mshr_miss_latency::total 51676.056338                       # average WriteReq mshr miss latency
system.cpu.dcache.SoftPFReq_hits::.cpu.data           21                       # number of SoftPFReq hits
system.cpu.dcache.SoftPFReq_hits::total            21                       # number of SoftPFReq hits
system.cpu.dcache.SoftPFReq_misses::.cpu.data            8                       # number of SoftPFReq misses
system.cpu.dcache.SoftPFReq_misses::total            8                       # number of SoftPFReq misses
system.cpu.dcache.SoftPFReq_accesses::.cpu.data           29                       # number of SoftPFReq accesses(hits+misses)
system.cpu.dcache.SoftPFReq_accesses::total           29                       # number of SoftPFReq accesses(hits+misses)
system.cpu.dcache.SoftPFReq_miss_rate::.cpu.data     0.275862                       # miss rate for SoftPFReq accesses
system.cpu.dcache.SoftPFReq_miss_rate::total     0.275862                       # miss rate for SoftPFReq accesses
system.cpu.dcache.SoftPFReq_mshr_misses::.cpu.data            7                       # number of SoftPFReq MSHR misses
system.cpu.dcache.SoftPFReq_mshr_misses::total            7                       # number of SoftPFReq MSHR misses
system.cpu.dcache.SoftPFReq_mshr_miss_latency::.cpu.data       364000                       # number of SoftPFReq MSHR miss cycles
system.cpu.dcache.SoftPFReq_mshr_miss_latency::total       364000                       # number of SoftPFReq MSHR miss cycles
system.cpu.dcache.SoftPFReq_mshr_miss_rate::.cpu.data     0.241379                       # mshr miss rate for SoftPFReq accesses
system.cpu.dcache.SoftPFReq_mshr_miss_rate::total     0.241379                       # mshr miss rate for SoftPFReq accesses
system.cpu.dcache.SoftPFReq_avg_mshr_miss_latency::.cpu.data        52000                       # average SoftPFReq mshr miss latency
system.cpu.dcache.SoftPFReq_avg_mshr_miss_latency::total        52000                       # average SoftPFReq mshr miss latency
system.cpu.dcache.LoadLockedReq_hits::.cpu.data           54                       # number of LoadLockedReq hits
system.cpu.dcache.LoadLockedReq_hits::total           54                       # number of LoadLockedReq hits
system.cpu.dcache.LoadLockedReq_accesses::.cpu.data           54                       # number of LoadLockedReq accesses(hits+misses)
system.cpu.dcache.LoadLockedReq_accesses::total           54                       # number of LoadLockedReq accesses(hits+misses)
system.cpu.dcache.StoreCondReq_hits::.cpu.data           54                       # number of StoreCondReq hits
system.cpu.dcache.StoreCondReq_hits::total           54                       # number of StoreCondReq hits
system.cpu.dcache.StoreCondReq_accesses::.cpu.data           54                       # number of StoreCondReq accesses(hits+misses)
system.cpu.dcache.StoreCondReq_accesses::total           54                       # number of StoreCondReq accesses(hits+misses)
system.cpu.dcache.tags.pwrStateResidencyTicks::UNDEFINED     41045500                       # Cumulative time (in ticks) in various power states
system.cpu.dcache.tags.tagsinuse           115.477886                       # Cycle average of tags in use
system.cpu.dcache.tags.total_refs                7492                       # Total number of references to valid blocks.
system.cpu.dcache.tags.sampled_refs               182                       # Sample count of references to valid blocks.
system.cpu.dcache.tags.avg_refs             41.164835                       # Average number of references to valid blocks.
system.cpu.dcache.tags.warmup_cycle            134000                       # Cycle when the warmup percentage was hit.
system.cpu.dcache.tags.occ_blocks::.cpu.data   115.477886                       # Average occupied blocks per requestor
system.cpu.dcache.tags.occ_percent::.cpu.data     0.112771                       # Average percentage of cache occupancy
system.cpu.dcache.tags.occ_percent::total     0.112771                       # Average percentage of cache occupancy
system.cpu.dcache.tags.occ_task_id_blocks::1024          180                       # Occupied blocks per task id
system.cpu.dcache.tags.age_task_id_blocks_1024::0           17                       # Occupied blocks per task id
system.cpu.dcache.tags.age_task_id_blocks_1024::1          163                       # Occupied blocks per task id
system.cpu.dcache.tags.occ_task_id_percent::1024     0.175781                       # Percentage of cache occupancy per task id
system.cpu.dcache.tags.tag_accesses             15272                       # Number of tag accesses
system.cpu.dcache.tags.data_accesses            15272                       # Number of data accesses
system.cpu.itb.walker.pwrStateResidencyTicks::UNDEFINED     41045500                       # Cumulative time (in ticks) in various power states
system.cpu.itb.stage2_mmu.stage2_tlb.walker.pwrStateResidencyTicks::UNDEFINED     41045500                       # Cumulative time (in ticks) in various power states

---------- End Simulation Statistics   ----------
